FoamFile
{
    version 2.0;
    format ascii;
    class dictionary;
    object blockMeshDict;
}

convertToMeters 0.001;

vertices
(
    (0.500000 0.000000 0.000000)
    (0.526180 0.000000 0.000000)
    (0.553731 0.000000 0.000000)
    (0.582724 0.000000 0.000000)
    (0.613235 0.000000 0.000000)
    (0.645344 0.000000 0.000000)
    (0.679134 0.000000 0.000000)
    (0.714694 0.000000 0.000000)
    (0.752115 0.000000 0.000000)
    (0.791496 0.000000 0.000000)
    (0.832938 0.000000 0.000000)
    (0.876551 0.000000 0.000000)
    (0.922447 0.000000 0.000000)
    (0.970746 0.000000 0.000000)
    (1.021574 0.000000 0.000000)
    (1.075064 0.000000 0.000000)
    (1.131354 0.000000 0.000000)
    (1.190592 0.000000 0.000000)
    (1.252931 0.000000 0.000000)
    (1.318534 0.000000 0.000000)
    (1.387572 0.000000 0.000000)
    (1.460225 0.000000 0.000000)
    (1.536683 0.000000 0.000000)
    (1.617143 0.000000 0.000000)
    (1.701817 0.000000 0.000000)
    (1.790924 0.000000 0.000000)
    (1.884696 0.000000 0.000000)
    (1.983379 0.000000 0.000000)
    (2.087228 0.000000 0.000000)
    (2.196515 0.000000 0.000000)
    (2.311524 0.000000 0.000000)
    (2.432555 0.000000 0.000000)
    (2.559924 0.000000 0.000000)
    (2.693961 0.000000 0.000000)
    (2.835016 0.000000 0.000000)
    (2.983458 0.000000 0.000000)
    (3.139671 0.000000 0.000000)
    (3.304064 0.000000 0.000000)
    (3.477064 0.000000 0.000000)
    (3.659123 0.000000 0.000000)
    (3.850714 0.000000 0.000000)
    (4.052337 0.000000 0.000000)
    (4.264517 0.000000 0.000000)
    (4.487806 0.000000 0.000000)
    (4.722787 0.000000 0.000000)
    (4.970072 0.000000 0.000000)
    (5.230304 0.000000 0.000000)
    (5.504162 0.000000 0.000000)
    (5.792360 0.000000 0.000000)
    (6.095647 0.000000 0.000000)
    (6.414814 0.000000 0.000000)
    (6.750693 0.000000 0.000000)
    (7.104159 0.000000 0.000000)
    (7.476132 0.000000 0.000000)
    (7.867581 0.000000 0.000000)
    (8.279527 0.000000 0.000000)
    (8.713041 0.000000 0.000000)
    (9.169255 0.000000 0.000000)
    (9.649356 0.000000 0.000000)
    (10.154595 0.000000 0.000000)
    (10.686289 0.000000 0.000000)
    (11.245822 0.000000 0.000000)
    (11.834651 0.000000 0.000000)
    (12.454312 0.000000 0.000000)
    (13.106419 0.000000 0.000000)
    (13.792669 0.000000 0.000000)
    (14.514852 0.000000 0.000000)
    (15.274847 0.000000 0.000000)
    (16.074637 0.000000 0.000000)
    (16.916303 0.000000 0.000000)
    (17.802038 0.000000 0.000000)
    (0.499315 0.026168 0.000000)
    (0.525459 0.027538 0.000000)
    (0.552972 0.028980 0.000000)
    (0.581925 0.030497 0.000000)
    (0.612395 0.032094 0.000000)
    (0.644460 0.033775 0.000000)
    (0.678204 0.035543 0.000000)
    (0.713714 0.037404 0.000000)
    (0.751084 0.039363 0.000000)
    (0.790411 0.041424 0.000000)
    (0.831797 0.043593 0.000000)
    (0.875350 0.045875 0.000000)
    (0.921183 0.048277 0.000000)
    (0.969416 0.050805 0.000000)
    (1.020174 0.053465 0.000000)
    (1.073590 0.056264 0.000000)
    (1.129804 0.059210 0.000000)
    (1.188960 0.062311 0.000000)
    (1.251214 0.065573 0.000000)
    (1.316727 0.069007 0.000000)
    (1.385671 0.072620 0.000000)
    (1.458224 0.076422 0.000000)
    (1.534577 0.080424 0.000000)
    (1.614927 0.084635 0.000000)
    (1.699484 0.089066 0.000000)
    (1.788469 0.093730 0.000000)
    (1.882113 0.098637 0.000000)
    (1.980660 0.103802 0.000000)
    (2.084368 0.109237 0.000000)
    (2.193505 0.114957 0.000000)
    (2.308356 0.120976 0.000000)
    (2.429222 0.127310 0.000000)
    (2.556415 0.133976 0.000000)
    (2.690269 0.140991 0.000000)
    (2.831131 0.148373 0.000000)
    (2.979369 0.156142 0.000000)
    (3.135368 0.164318 0.000000)
    (3.299536 0.172921 0.000000)
    (3.472299 0.181975 0.000000)
    (3.654108 0.191504 0.000000)
    (3.845437 0.201531 0.000000)
    (4.046783 0.212083 0.000000)
    (4.258673 0.223188 0.000000)
    (4.481656 0.234874 0.000000)
    (4.716315 0.247172 0.000000)
    (4.963261 0.260113 0.000000)
    (5.223136 0.273733 0.000000)
    (5.496619 0.288066 0.000000)
    (5.784422 0.303149 0.000000)
    (6.087293 0.319022 0.000000)
    (6.406023 0.335725 0.000000)
    (6.741442 0.353304 0.000000)
    (7.094423 0.371803 0.000000)
    (7.465886 0.391270 0.000000)
    (7.856799 0.411757 0.000000)
    (8.268180 0.433317 0.000000)
    (8.701101 0.456005 0.000000)
    (9.156689 0.479882 0.000000)
    (9.636132 0.505008 0.000000)
    (10.140679 0.531450 0.000000)
    (10.671644 0.559277 0.000000)
    (11.230410 0.588561 0.000000)
    (11.818432 0.619378 0.000000)
    (12.437244 0.651808 0.000000)
    (13.088457 0.685937 0.000000)
    (13.773767 0.721853 0.000000)
    (14.494959 0.759649 0.000000)
    (15.253914 0.799424 0.000000)
    (16.052607 0.841281 0.000000)
    (16.893119 0.885331 0.000000)
    (17.777641 0.931687 0.000000)
    (0.497261 0.052264 0.000000)
    (0.523297 0.055001 0.000000)
    (0.550697 0.057881 0.000000)
    (0.579532 0.060911 0.000000)
    (0.609876 0.064101 0.000000)
    (0.641809 0.067457 0.000000)
    (0.675414 0.070989 0.000000)
    (0.710779 0.074706 0.000000)
    (0.747995 0.078617 0.000000)
    (0.787160 0.082734 0.000000)
    (0.828375 0.087066 0.000000)
    (0.871749 0.091625 0.000000)
    (0.917394 0.096422 0.000000)
    (0.965428 0.101471 0.000000)
    (1.015978 0.106784 0.000000)
    (1.069174 0.112375 0.000000)
    (1.125156 0.118259 0.000000)
    (1.184069 0.124451 0.000000)
    (1.246067 0.130967 0.000000)
    (1.311311 0.137824 0.000000)
    (1.379971 0.145041 0.000000)
    (1.452226 0.152635 0.000000)
    (1.528265 0.160627 0.000000)
    (1.608284 0.169037 0.000000)
    (1.692494 0.177888 0.000000)
    (1.781113 0.187202 0.000000)
    (1.874372 0.197004 0.000000)
    (1.972513 0.207320 0.000000)
    (2.075794 0.218175 0.000000)
    (2.184482 0.229598 0.000000)
    (2.298861 0.241620 0.000000)
    (2.419230 0.254271 0.000000)
    (2.545900 0.267585 0.000000)
    (2.679203 0.281596 0.000000)
    (2.819486 0.296340 0.000000)
    (2.967114 0.311856 0.000000)
    (3.122472 0.328185 0.000000)
    (3.285964 0.345369 0.000000)
    (3.458016 0.363452 0.000000)
    (3.639078 0.382482 0.000000)
    (3.829619 0.402509 0.000000)
    (4.030138 0.423585 0.000000)
    (4.241155 0.445763 0.000000)
    (4.463222 0.469104 0.000000)
    (4.696916 0.493666 0.000000)
    (4.942845 0.519514 0.000000)
    (5.201652 0.546716 0.000000)
    (5.474010 0.575342 0.000000)
    (5.760629 0.605466 0.000000)
    (6.062254 0.637169 0.000000)
    (6.379673 0.670531 0.000000)
    (6.713712 0.705640 0.000000)
    (7.065241 0.742587 0.000000)
    (7.435177 0.781469 0.000000)
    (7.824481 0.822386 0.000000)
    (8.234170 0.865446 0.000000)
    (8.665311 0.910761 0.000000)
    (9.119025 0.958448 0.000000)
    (9.596496 1.008632 0.000000)
    (10.098968 1.061444 0.000000)
    (10.627748 1.117021 0.000000)
    (11.184216 1.175508 0.000000)
    (11.769820 1.237058 0.000000)
    (12.386086 1.301830 0.000000)
    (13.034620 1.369994 0.000000)
    (13.717111 1.441727 0.000000)
    (14.435338 1.517215 0.000000)
    (15.191170 1.596656 0.000000)
    (15.986578 1.680257 0.000000)
    (16.823633 1.768235 0.000000)
    (17.704517 1.860820 0.000000)
    (0.493844 0.078217 0.000000)
    (0.519702 0.082313 0.000000)
    (0.546913 0.086623 0.000000)
    (0.575550 0.091158 0.000000)
    (0.605685 0.095931 0.000000)
    (0.637399 0.100954 0.000000)
    (0.670773 0.106240 0.000000)
    (0.705895 0.111803 0.000000)
    (0.742855 0.117657 0.000000)
    (0.781751 0.123817 0.000000)
    (0.822683 0.130300 0.000000)
    (0.865759 0.137123 0.000000)
    (0.911090 0.144302 0.000000)
    (0.958795 0.151858 0.000000)
    (1.008997 0.159809 0.000000)
    (1.061828 0.168177 0.000000)
    (1.117425 0.176983 0.000000)
    (1.175933 0.186250 0.000000)
    (1.237505 0.196002 0.000000)
    (1.302301 0.206264 0.000000)
    (1.370489 0.217064 0.000000)
    (1.442248 0.228430 0.000000)
    (1.517764 0.240390 0.000000)
    (1.597234 0.252977 0.000000)
    (1.680864 0.266223 0.000000)
    (1.768874 0.280162 0.000000)
    (1.861492 0.294831 0.000000)
    (1.958960 0.310269 0.000000)
    (2.061531 0.326514 0.000000)
    (2.169472 0.343611 0.000000)
    (2.283066 0.361602 0.000000)
    (2.402607 0.380536 0.000000)
    (2.528407 0.400460 0.000000)
    (2.660794 0.421428 0.000000)
    (2.800113 0.443494 0.000000)
    (2.946726 0.466716 0.000000)
    (3.101016 0.491153 0.000000)
    (3.263385 0.516869 0.000000)
    (3.434256 0.543933 0.000000)
    (3.614073 0.572413 0.000000)
    (3.803305 0.602384 0.000000)
    (4.002446 0.633925 0.000000)
    (4.212014 0.667117 0.000000)
    (4.432554 0.702048 0.000000)
    (4.664642 0.738807 0.000000)
    (4.908882 0.777491 0.000000)
    (5.165911 0.818200 0.000000)
    (5.436397 0.861041 0.000000)
    (5.721046 0.906125 0.000000)
    (6.020599 0.953569 0.000000)
    (6.335837 1.003498 0.000000)
    (6.667581 1.056041 0.000000)
    (7.016695 1.111335 0.000000)
    (7.384088 1.169525 0.000000)
    (7.770718 1.230761 0.000000)
    (8.177592 1.295203 0.000000)
    (8.605769 1.363020 0.000000)
    (9.056367 1.434388 0.000000)
    (9.530557 1.509492 0.000000)
    (10.029576 1.588529 0.000000)
    (10.554723 1.671704 0.000000)
    (11.107367 1.759234 0.000000)
    (11.688947 1.851347 0.000000)
    (12.300979 1.948284 0.000000)
    (12.945057 2.050296 0.000000)
    (13.622858 2.157649 0.000000)
    (14.336150 2.270623 0.000000)
    (15.086789 2.389513 0.000000)
    (15.876731 2.514627 0.000000)
    (16.708035 2.646293 0.000000)
    (17.582865 2.784852 0.000000)
    (0.489074 0.103956 0.000000)
    (0.514682 0.109399 0.000000)
    (0.541630 0.115127 0.000000)
    (0.569990 0.121155 0.000000)
    (0.599835 0.127499 0.000000)
    (0.631242 0.134175 0.000000)
    (0.664294 0.141200 0.000000)
    (0.699076 0.148593 0.000000)
    (0.735679 0.156374 0.000000)
    (0.774200 0.164561 0.000000)
    (0.814737 0.173178 0.000000)
    (0.857396 0.182245 0.000000)
    (0.902289 0.191787 0.000000)
    (0.949533 0.201829 0.000000)
    (0.999250 0.212397 0.000000)
    (1.051571 0.223518 0.000000)
    (1.106631 0.235222 0.000000)
    (1.164574 0.247538 0.000000)
    (1.225551 0.260499 0.000000)
    (1.289721 0.274139 0.000000)
    (1.357251 0.288493 0.000000)
    (1.428316 0.303598 0.000000)
    (1.503102 0.319494 0.000000)
    (1.581805 0.336223 0.000000)
    (1.664628 0.353828 0.000000)
    (1.751788 0.372354 0.000000)
    (1.843511 0.391850 0.000000)
    (1.940037 0.412368 0.000000)
    (2.041617 0.433959 0.000000)
    (2.148516 0.456681 0.000000)
    (2.261012 0.480593 0.000000)
    (2.379398 0.505757 0.000000)
    (2.503983 0.532238 0.000000)
    (2.635091 0.560106 0.000000)
    (2.773065 0.589433 0.000000)
    (2.918262 0.620296 0.000000)
    (3.071062 0.652774 0.000000)
    (3.231862 0.686953 0.000000)
    (3.401082 0.722922 0.000000)
    (3.579162 0.760774 0.000000)
    (3.766567 0.800608 0.000000)
    (3.963784 0.842528 0.000000)
    (4.171327 0.886643 0.000000)
    (4.389737 0.933067 0.000000)
    (4.619583 0.981923 0.000000)
    (4.861464 1.033336 0.000000)
    (5.116010 1.087441 0.000000)
    (5.383883 1.144380 0.000000)
    (5.665783 1.204299 0.000000)
    (5.962443 1.267356 0.000000)
    (6.274635 1.333715 0.000000)
    (6.603174 1.403548 0.000000)
    (6.948916 1.477038 0.000000)
    (7.312760 1.554375 0.000000)
    (7.695655 1.635762 0.000000)
    (8.098599 1.721410 0.000000)
    (8.522641 1.811543 0.000000)
    (8.968885 1.906395 0.000000)
    (9.438495 2.006214 0.000000)
    (9.932693 2.111259 0.000000)
    (10.452768 2.221804 0.000000)
    (11.000073 2.338138 0.000000)
    (11.576036 2.460562 0.000000)
    (12.182156 2.589397 0.000000)
    (12.820012 2.724978 0.000000)
    (13.491266 2.867657 0.000000)
    (14.197667 3.017807 0.000000)
    (14.941055 3.175819 0.000000)
    (15.723367 3.342105 0.000000)
    (16.546641 3.517097 0.000000)
    (17.413021 3.701252 0.000000)
    (0.482963 0.129410 0.000000)
    (0.508251 0.136185 0.000000)
    (0.534863 0.143316 0.000000)
    (0.562868 0.150820 0.000000)
    (0.592340 0.158717 0.000000)
    (0.623355 0.167027 0.000000)
    (0.655993 0.175773 0.000000)
    (0.690341 0.184976 0.000000)
    (0.726487 0.194662 0.000000)
    (0.764526 0.204854 0.000000)
    (0.804557 0.215580 0.000000)
    (0.846683 0.226868 0.000000)
    (0.891015 0.238747 0.000000)
    (0.937669 0.251248 0.000000)
    (0.986765 0.264403 0.000000)
    (1.038432 0.278247 0.000000)
    (1.092804 0.292816 0.000000)
    (1.150023 0.308148 0.000000)
    (1.210238 0.324282 0.000000)
    (1.273606 0.341262 0.000000)
    (1.340292 0.359130 0.000000)
    (1.410469 0.377934 0.000000)
    (1.484322 0.397723 0.000000)
    (1.562040 0.418547 0.000000)
    (1.643829 0.440463 0.000000)
    (1.729899 0.463525 0.000000)
    (1.820477 0.487795 0.000000)
    (1.915797 0.513336 0.000000)
    (2.016107 0.540214 0.000000)
    (2.121671 0.568500 0.000000)
    (2.232761 0.598267 0.000000)
    (2.349668 0.629592 0.000000)
    (2.472696 0.662557 0.000000)
    (2.602166 0.697248 0.000000)
    (2.738416 0.733756 0.000000)
    (2.881799 0.772176 0.000000)
    (3.032689 0.812607 0.000000)
    (3.191481 0.855155 0.000000)
    (3.358586 0.899930 0.000000)
    (3.534441 0.947051 0.000000)
    (3.719504 0.996638 0.000000)
    (3.914257 1.048822 0.000000)
    (4.119207 1.103738 0.000000)
    (4.334888 1.161530 0.000000)
    (4.561862 1.222347 0.000000)
    (4.800721 1.286349 0.000000)
    (5.052086 1.353702 0.000000)
    (5.316613 1.424582 0.000000)
    (5.594990 1.499173 0.000000)
    (5.887943 1.577670 0.000000)
    (6.196235 1.660276 0.000000)
    (6.520669 1.747208 0.000000)
    (6.862090 1.838692 0.000000)
    (7.221389 1.934965 0.000000)
    (7.599500 2.036280 0.000000)
    (7.997408 2.142899 0.000000)
    (8.416152 2.255101 0.000000)
    (8.856820 2.373178 0.000000)
    (9.320563 2.497437 0.000000)
    (9.808586 2.628203 0.000000)
    (10.322162 2.765815 0.000000)
    (10.862630 2.910633 0.000000)
    (11.431396 3.063033 0.000000)
    (12.029942 3.223413 0.000000)
    (12.659828 3.392191 0.000000)
    (13.322695 3.569805 0.000000)
    (14.020270 3.756720 0.000000)
    (14.754370 3.953421 0.000000)
    (15.526907 4.160422 0.000000)
    (16.339894 4.378261 0.000000)
    (17.195448 4.607507 0.000000)
    (0.475528 0.154508 0.000000)
    (0.500427 0.162599 0.000000)
    (0.526629 0.171112 0.000000)
    (0.554203 0.180072 0.000000)
    (0.583221 0.189500 0.000000)
    (0.613759 0.199422 0.000000)
    (0.645895 0.209864 0.000000)
    (0.679714 0.220853 0.000000)
    (0.715304 0.232416 0.000000)
    (0.752757 0.244586 0.000000)
    (0.792171 0.257392 0.000000)
    (0.833649 0.270869 0.000000)
    (0.877299 0.285052 0.000000)
    (0.923234 0.299977 0.000000)
    (0.971575 0.315684 0.000000)
    (1.022446 0.332213 0.000000)
    (1.075982 0.349608 0.000000)
    (1.132320 0.367913 0.000000)
    (1.191608 0.387177 0.000000)
    (1.254000 0.407449 0.000000)
    (1.319660 0.428783 0.000000)
    (1.388757 0.451234 0.000000)
    (1.461472 0.474861 0.000000)
    (1.537995 0.499725 0.000000)
    (1.618524 0.525890 0.000000)
    (1.703270 0.553426 0.000000)
    (1.792452 0.582403 0.000000)
    (1.886305 0.612898 0.000000)
    (1.985072 0.644989 0.000000)
    (2.089010 0.678760 0.000000)
    (2.198390 0.714300 0.000000)
    (2.313498 0.751701 0.000000)
    (2.434632 0.791060 0.000000)
    (2.562109 0.832480 0.000000)
    (2.696261 0.876068 0.000000)
    (2.837437 0.921939 0.000000)
    (2.986005 0.970212 0.000000)
    (3.142351 1.021012 0.000000)
    (3.306885 1.074472 0.000000)
    (3.480033 1.130731 0.000000)
    (3.662247 1.189936 0.000000)
    (3.854002 1.252241 0.000000)
    (4.055797 1.317808 0.000000)
    (4.268158 1.386808 0.000000)
    (4.491638 1.459422 0.000000)
    (4.726819 1.535837 0.000000)
    (4.974315 1.616253 0.000000)
    (5.234770 1.700880 0.000000)
    (5.508862 1.789938 0.000000)
    (5.797305 1.883659 0.000000)
    (6.100851 1.982287 0.000000)
    (6.420291 2.086079 0.000000)
    (6.756456 2.195306 0.000000)
    (7.110224 2.310252 0.000000)
    (7.482514 2.431216 0.000000)
    (7.874298 2.558514 0.000000)
    (8.286595 2.692478 0.000000)
    (8.720480 2.833456 0.000000)
    (9.177083 2.981815 0.000000)
    (9.657594 3.137943 0.000000)
    (10.163265 3.302245 0.000000)
    (10.695412 3.475150 0.000000)
    (11.255422 3.657108 0.000000)
    (11.844755 3.848594 0.000000)
    (12.464945 4.050106 0.000000)
    (13.117608 4.262169 0.000000)
    (13.804444 4.485336 0.000000)
    (14.527243 4.720187 0.000000)
    (15.287888 4.967336 0.000000)
    (16.088360 5.227425 0.000000)
    (16.930744 5.501132 0.000000)
    (0.466790 0.179184 0.000000)
    (0.491231 0.188566 0.000000)
    (0.516952 0.198439 0.000000)
    (0.544020 0.208830 0.000000)
    (0.572504 0.219764 0.000000)
    (0.602481 0.231271 0.000000)
    (0.634027 0.243380 0.000000)
    (0.667224 0.256123 0.000000)
    (0.702160 0.269534 0.000000)
    (0.738925 0.283647 0.000000)
    (0.777615 0.298498 0.000000)
    (0.818331 0.314128 0.000000)
    (0.861178 0.330575 0.000000)
    (0.906270 0.347884 0.000000)
    (0.953722 0.366099 0.000000)
    (1.003659 0.385268 0.000000)
    (1.056210 0.405441 0.000000)
    (1.111513 0.426670 0.000000)
    (1.169712 0.449010 0.000000)
    (1.230958 0.472520 0.000000)
    (1.295410 0.497261 0.000000)
    (1.363238 0.523298 0.000000)
    (1.434617 0.550698 0.000000)
    (1.509733 0.579532 0.000000)
    (1.588783 0.609877 0.000000)
    (1.671971 0.641810 0.000000)
    (1.759515 0.675415 0.000000)
    (1.851643 0.710779 0.000000)
    (1.948595 0.747996 0.000000)
    (2.050623 0.787161 0.000000)
    (2.157994 0.828376 0.000000)
    (2.270986 0.871750 0.000000)
    (2.389895 0.917395 0.000000)
    (2.515029 0.965429 0.000000)
    (2.646716 1.015979 0.000000)
    (2.785298 1.069176 0.000000)
    (2.931135 1.125157 0.000000)
    (3.084609 1.184071 0.000000)
    (3.246119 1.246068 0.000000)
    (3.416085 1.311312 0.000000)
    (3.594951 1.379973 0.000000)
    (3.783183 1.452228 0.000000)
    (3.981269 1.528266 0.000000)
    (4.189728 1.608286 0.000000)
    (4.409102 1.692496 0.000000)
    (4.639962 1.781115 0.000000)
    (4.882910 1.874373 0.000000)
    (5.138578 1.972515 0.000000)
    (5.407634 2.075796 0.000000)
    (5.690777 2.184485 0.000000)
    (5.988745 2.298864 0.000000)
    (6.302315 2.419232 0.000000)
    (6.632304 2.545903 0.000000)
    (6.979570 2.679206 0.000000)
    (7.345020 2.819489 0.000000)
    (7.729604 2.967117 0.000000)
    (8.134325 3.122475 0.000000)
    (8.560237 3.285967 0.000000)
    (9.008450 3.458020 0.000000)
    (9.480132 3.639082 0.000000)
    (9.976510 3.829623 0.000000)
    (10.498879 4.030142 0.000000)
    (11.048599 4.241160 0.000000)
    (11.627102 4.463226 0.000000)
    (12.235896 4.696920 0.000000)
    (12.876566 4.942851 0.000000)
    (13.550781 5.201658 0.000000)
    (14.260299 5.474016 0.000000)
    (15.006966 5.760635 0.000000)
    (15.792729 6.062261 0.000000)
    (16.619634 6.379680 0.000000)
    (0.456773 0.203368 0.000000)
    (0.480689 0.214017 0.000000)
    (0.505858 0.225223 0.000000)
    (0.532345 0.237015 0.000000)
    (0.560218 0.249425 0.000000)
    (0.589551 0.262485 0.000000)
    (0.620420 0.276229 0.000000)
    (0.652905 0.290692 0.000000)
    (0.687091 0.305913 0.000000)
    (0.723067 0.321930 0.000000)
    (0.760927 0.338787 0.000000)
    (0.800769 0.356525 0.000000)
    (0.842697 0.375193 0.000000)
    (0.886821 0.394838 0.000000)
    (0.933255 0.415512 0.000000)
    (0.982120 0.437268 0.000000)
    (1.033543 0.460163 0.000000)
    (1.087659 0.484257 0.000000)
    (1.144609 0.509613 0.000000)
    (1.204541 0.536296 0.000000)
    (1.267610 0.564377 0.000000)
    (1.333982 0.593927 0.000000)
    (1.403830 0.625025 0.000000)
    (1.477334 0.657751 0.000000)
    (1.554687 0.692191 0.000000)
    (1.636090 0.728434 0.000000)
    (1.721756 0.766575 0.000000)
    (1.811906 0.806713 0.000000)
    (1.906778 0.848952 0.000000)
    (2.006616 0.893403 0.000000)
    (2.111682 0.940182 0.000000)
    (2.222250 0.989409 0.000000)
    (2.338607 1.041215 0.000000)
    (2.461056 1.095733 0.000000)
    (2.589916 1.153105 0.000000)
    (2.725524 1.213482 0.000000)
    (2.868232 1.277019 0.000000)
    (3.018413 1.343884 0.000000)
    (3.176456 1.414249 0.000000)
    (3.342775 1.488299 0.000000)
    (3.517802 1.566227 0.000000)
    (3.701994 1.648234 0.000000)
    (3.895830 1.734535 0.000000)
    (4.099815 1.825355 0.000000)
    (4.314481 1.920931 0.000000)
    (4.540387 2.021510 0.000000)
    (4.778121 2.127356 0.000000)
    (5.028303 2.238745 0.000000)
    (5.291584 2.355965 0.000000)
    (5.568651 2.479323 0.000000)
    (5.860225 2.609140 0.000000)
    (6.167065 2.745754 0.000000)
    (6.489972 2.889522 0.000000)
    (6.829786 3.040817 0.000000)
    (7.187393 3.200033 0.000000)
    (7.563724 3.367587 0.000000)
    (7.959759 3.543913 0.000000)
    (8.376532 3.729472 0.000000)
    (8.815126 3.924747 0.000000)
    (9.276685 4.130246 0.000000)
    (9.762411 4.346505 0.000000)
    (10.273569 4.574088 0.000000)
    (10.811492 4.813586 0.000000)
    (11.377581 5.065625 0.000000)
    (11.973309 5.330861 0.000000)
    (12.600230 5.609984 0.000000)
    (13.259977 5.903722 0.000000)
    (13.954267 6.212840 0.000000)
    (14.684911 6.538144 0.000000)
    (15.453811 6.880480 0.000000)
    (16.262971 7.240741 0.000000)
    (0.445503 0.226995 0.000000)
    (0.468830 0.238881 0.000000)
    (0.493378 0.251388 0.000000)
    (0.519211 0.264551 0.000000)
    (0.546397 0.278403 0.000000)
    (0.575006 0.292980 0.000000)
    (0.605113 0.308321 0.000000)
    (0.636797 0.324464 0.000000)
    (0.670139 0.341453 0.000000)
    (0.705228 0.359332 0.000000)
    (0.742153 0.378146 0.000000)
    (0.781013 0.397946 0.000000)
    (0.821906 0.418782 0.000000)
    (0.864941 0.440710 0.000000)
    (0.910229 0.463785 0.000000)
    (0.957889 0.488069 0.000000)
    (1.008044 0.513624 0.000000)
    (1.060825 0.540517 0.000000)
    (1.116369 0.568819 0.000000)
    (1.174822 0.598602 0.000000)
    (1.236336 0.629945 0.000000)
    (1.301070 0.662928 0.000000)
    (1.369194 0.697639 0.000000)
    (1.440885 0.734168 0.000000)
    (1.516330 0.772609 0.000000)
    (1.595725 0.813062 0.000000)
    (1.679277 0.855634 0.000000)
    (1.767203 0.900435 0.000000)
    (1.859734 0.947582 0.000000)
    (1.957109 0.997197 0.000000)
    (2.059583 1.049410 0.000000)
    (2.167423 1.104357 0.000000)
    (2.280909 1.162181 0.000000)
    (2.400337 1.223033 0.000000)
    (2.526018 1.287071 0.000000)
    (2.658280 1.354461 0.000000)
    (2.797467 1.425381 0.000000)
    (2.943942 1.500014 0.000000)
    (3.098087 1.578554 0.000000)
    (3.260302 1.661207 0.000000)
    (3.431011 1.748188 0.000000)
    (3.610659 1.839723 0.000000)
    (3.799712 1.936050 0.000000)
    (3.998665 2.037421 0.000000)
    (4.208034 2.144101 0.000000)
    (4.428367 2.256365 0.000000)
    (4.660235 2.374509 0.000000)
    (4.904245 2.498837 0.000000)
    (5.161030 2.629676 0.000000)
    (5.431261 2.767366 0.000000)
    (5.715641 2.912265 0.000000)
    (6.014912 3.064751 0.000000)
    (6.329852 3.225221 0.000000)
    (6.661282 3.394093 0.000000)
    (7.010066 3.571807 0.000000)
    (7.377112 3.758826 0.000000)
    (7.763377 3.955638 0.000000)
    (8.169866 4.162755 0.000000)
    (8.597639 4.380716 0.000000)
    (9.047811 4.610090 0.000000)
    (9.521553 4.851474 0.000000)
    (10.020100 5.105496 0.000000)
    (10.544752 5.372819 0.000000)
    (11.096874 5.654140 0.000000)
    (11.677905 5.950190 0.000000)
    (12.289358 6.261741 0.000000)
    (12.932827 6.589605 0.000000)
    (13.609989 6.934636 0.000000)
    (14.322606 7.297732 0.000000)
    (15.072536 7.679841 0.000000)
    (15.861732 8.081956 0.000000)
    (0.433013 0.250000 0.000000)
    (0.455685 0.263090 0.000000)
    (0.479545 0.276865 0.000000)
    (0.504654 0.291362 0.000000)
    (0.531077 0.306618 0.000000)
    (0.558884 0.322672 0.000000)
    (0.588148 0.339567 0.000000)
    (0.618943 0.357347 0.000000)
    (0.651351 0.376058 0.000000)
    (0.685455 0.395748 0.000000)
    (0.721346 0.416469 0.000000)
    (0.759115 0.438275 0.000000)
    (0.798862 0.461223 0.000000)
    (0.840691 0.485373 0.000000)
    (0.884709 0.510787 0.000000)
    (0.931033 0.537532 0.000000)
    (0.979781 0.565677 0.000000)
    (1.031083 0.595296 0.000000)
    (1.085070 0.626465 0.000000)
    (1.141884 0.659267 0.000000)
    (1.201673 0.693786 0.000000)
    (1.264592 0.730113 0.000000)
    (1.330806 0.768341 0.000000)
    (1.400487 0.808572 0.000000)
    (1.473816 0.850908 0.000000)
    (1.550985 0.895462 0.000000)
    (1.632195 0.942348 0.000000)
    (1.717656 0.991689 0.000000)
    (1.807592 1.043614 0.000000)
    (1.902238 1.098258 0.000000)
    (2.001839 1.155762 0.000000)
    (2.106655 1.216278 0.000000)
    (2.216959 1.279962 0.000000)
    (2.333039 1.346980 0.000000)
    (2.455196 1.417508 0.000000)
    (2.583750 1.491729 0.000000)
    (2.719035 1.569836 0.000000)
    (2.861403 1.652032 0.000000)
    (3.011226 1.738532 0.000000)
    (3.168893 1.829561 0.000000)
    (3.334816 1.925357 0.000000)
    (3.509427 2.026169 0.000000)
    (3.693180 2.132258 0.000000)
    (3.886554 2.243903 0.000000)
    (4.090054 2.361394 0.000000)
    (4.304209 2.485036 0.000000)
    (4.529576 2.615152 0.000000)
    (4.766745 2.752081 0.000000)
    (5.016331 2.896180 0.000000)
    (5.278985 3.047824 0.000000)
    (5.555392 3.207407 0.000000)
    (5.846272 3.375347 0.000000)
    (6.152382 3.552079 0.000000)
    (6.474520 3.738066 0.000000)
    (6.813525 3.933790 0.000000)
    (7.170280 4.139763 0.000000)
    (7.545715 4.356521 0.000000)
    (7.940808 4.584628 0.000000)
    (8.356588 4.824678 0.000000)
    (8.794138 5.077298 0.000000)
    (9.254598 5.343144 0.000000)
    (9.739167 5.622911 0.000000)
    (10.249109 5.917326 0.000000)
    (10.785751 6.227156 0.000000)
    (11.350492 6.553209 0.000000)
    (11.944802 6.896335 0.000000)
    (12.570230 7.257426 0.000000)
    (13.228406 7.637424 0.000000)
    (13.921044 8.037318 0.000000)
    (14.649948 8.458151 0.000000)
    (15.417017 8.901019 0.000000)
    (0.419335 0.272320 0.000000)
    (0.441292 0.286578 0.000000)
    (0.464398 0.301583 0.000000)
    (0.488713 0.317374 0.000000)
    (0.514302 0.333992 0.000000)
    (0.541231 0.351480 0.000000)
    (0.569570 0.369883 0.000000)
    (0.599393 0.389250 0.000000)
    (0.630777 0.409631 0.000000)
    (0.663804 0.431079 0.000000)
    (0.698561 0.453651 0.000000)
    (0.735137 0.477404 0.000000)
    (0.773629 0.502401 0.000000)
    (0.814136 0.528706 0.000000)
    (0.856764 0.556389 0.000000)
    (0.901624 0.585522 0.000000)
    (0.948833 0.616180 0.000000)
    (0.998514 0.648443 0.000000)
    (1.050796 0.682395 0.000000)
    (1.105816 0.718125 0.000000)
    (1.163716 0.755726 0.000000)
    (1.224648 0.795296 0.000000)
    (1.288771 0.836937 0.000000)
    (1.356250 0.880759 0.000000)
    (1.427264 0.926876 0.000000)
    (1.501995 0.975407 0.000000)
    (1.580639 1.026479 0.000000)
    (1.663401 1.080225 0.000000)
    (1.750497 1.136786 0.000000)
    (1.842152 1.196308 0.000000)
    (1.938607 1.258946 0.000000)
    (2.040113 1.324865 0.000000)
    (2.146933 1.394234 0.000000)
    (2.259346 1.467236 0.000000)
    (2.377645 1.544061 0.000000)
    (2.502138 1.624907 0.000000)
    (2.633150 1.709987 0.000000)
    (2.771021 1.799522 0.000000)
    (2.916111 1.893745 0.000000)
    (3.068799 1.992901 0.000000)
    (3.229481 2.097249 0.000000)
    (3.398576 2.207061 0.000000)
    (3.576525 2.322622 0.000000)
    (3.763791 2.444235 0.000000)
    (3.960863 2.572214 0.000000)
    (4.168253 2.706895 0.000000)
    (4.386502 2.848628 0.000000)
    (4.616179 2.997782 0.000000)
    (4.857882 3.154745 0.000000)
    (5.112240 3.319927 0.000000)
    (5.379916 3.493758 0.000000)
    (5.661608 3.676691 0.000000)
    (5.958049 3.869202 0.000000)
    (6.270012 4.071793 0.000000)
    (6.598309 4.284992 0.000000)
    (6.943795 4.509353 0.000000)
    (7.307371 4.745463 0.000000)
    (7.689985 4.993934 0.000000)
    (8.092631 5.255416 0.000000)
    (8.516360 5.530589 0.000000)
    (8.962276 5.820170 0.000000)
    (9.431540 6.124913 0.000000)
    (9.925374 6.445613 0.000000)
    (10.445065 6.783105 0.000000)
    (10.991968 7.138267 0.000000)
    (11.567506 7.512026 0.000000)
    (12.173179 7.905355 0.000000)
    (12.810565 8.319278 0.000000)
    (13.481325 8.754875 0.000000)
    (14.187205 9.213279 0.000000)
    (14.930045 9.695685 0.000000)
    (0.404508 0.293893 0.000000)
    (0.425689 0.309281 0.000000)
    (0.447978 0.325475 0.000000)
    (0.471434 0.342517 0.000000)
    (0.496118 0.360451 0.000000)
    (0.522094 0.379324 0.000000)
    (0.549431 0.399185 0.000000)
    (0.578199 0.420086 0.000000)
    (0.608474 0.442082 0.000000)
    (0.640333 0.465229 0.000000)
    (0.673861 0.489589 0.000000)
    (0.709145 0.515224 0.000000)
    (0.746275 0.542201 0.000000)
    (0.785350 0.570590 0.000000)
    (0.826471 0.600466 0.000000)
    (0.869745 0.631907 0.000000)
    (0.915285 0.664993 0.000000)
    (0.963209 0.699812 0.000000)
    (1.013642 0.736454 0.000000)
    (1.066716 0.775015 0.000000)
    (1.122570 0.815595 0.000000)
    (1.181347 0.858299 0.000000)
    (1.243202 0.903239 0.000000)
    (1.308296 0.950533 0.000000)
    (1.376799 1.000303 0.000000)
    (1.448888 1.052678 0.000000)
    (1.524751 1.107797 0.000000)
    (1.604587 1.165801 0.000000)
    (1.688603 1.226842 0.000000)
    (1.777018 1.291079 0.000000)
    (1.870062 1.358680 0.000000)
    (1.967979 1.429820 0.000000)
    (2.071022 1.504685 0.000000)
    (2.179460 1.583471 0.000000)
    (2.293576 1.666381 0.000000)
    (2.413668 1.753632 0.000000)
    (2.540047 1.845452 0.000000)
    (2.673044 1.942080 0.000000)
    (2.813004 2.043767 0.000000)
    (2.960293 2.150778 0.000000)
    (3.115293 2.263393 0.000000)
    (3.278410 2.381904 0.000000)
    (3.450067 2.506620 0.000000)
    (3.630712 2.637866 0.000000)
    (3.820815 2.775985 0.000000)
    (4.020873 2.921335 0.000000)
    (4.231405 3.074296 0.000000)
    (4.452961 3.235266 0.000000)
    (4.686117 3.404664 0.000000)